*Heading
** Job name: Job-Shell Model name: Streifenziehversuch
** Generated by: Abaqus/CAE 6.14-6
*Preprint, echo=NO, model=NO, history=NO, contact=NO
**
** PARTS
**
*Part, name=Blech_Shell
*Node
      1,           0.,           0.,           0.
      2,           2.,           0.,           0.
      3,           4.,           0.,           0.
      4,           6.,           0.,           0.
      5,           8.,           0.,           0.
      6,          10.,           0.,           0.
      7,          12.,           0.,           0.
      8,          14.,           0.,           0.
      9,          16.,           0.,           0.
     10,          18.,           0.,           0.
     11,          20.,           0.,           0.
     12,          22.,           0.,           0.
     13,          24.,           0.,           0.
     14,          26.,           0.,           0.
     15,          28.,           0.,           0.
     16,          30.,           0.,           0.
     17,          32.,           0.,           0.
     18,          34.,           0.,           0.
     19,          36.,           0.,           0.
     20,          38.,           0.,           0.
** ... 1091 like lines cut
*Element, type=S4R
   1,    1,    2,  103,  102
   2,    2,    3,  104,  103
   3,    3,    4,  105,  104
   4,    4,    5,  106,  105
   5,    5,    6,  107,  106
   6,    6,    7,  108,  107
   7,    7,    8,  109,  108
   8,    8,    9,  110,  109
   9,    9,   10,  111,  110
  10,   10,   11,  112,  111
  11,   11,   12,  113,  112
  12,   12,   13,  114,  113
  13,   13,   14,  115,  114
  14,   14,   15,  116,  115
  15,   15,   16,  117,  116
  16,   16,   17,  118,  117
  17,   17,   18,  119,  118
  18,   18,   19,  120,  119
  19,   19,   20,  121,  120
  20,   20,   21,  122,  121
** ... 980 like lines cut
*Nset, nset=_PickedSet5, internal, generate
    1,  1111,     1
*Elset, elset=_PickedSet5, internal, generate
    1,  1000,     1
*Elset, elset=_Blech_oben_SPOS, internal, generate
    1,  1000,     1
*Surface, type=ELEMENT, name=Blech_oben
_Blech_oben_SPOS, SPOS
*Elset, elset=_Blech_unten_SNEG, internal, generate
    1,  1000,     1
*Surface, type=ELEMENT, name=Blech_unten
_Blech_unten_SNEG, SNEG
** Section: Section-Blech
*Shell Section, elset=_PickedSet5, material=X5CRNI18-1_4301
0.4, 5
*End Part
**  
*Part, name=Niederhalterplatte
*Node
      1,           5.,           0.,          30.
      2,         3.75,         1.25,          30.
      3,          2.5,          2.5,          30.
      4,         1.25,         3.75,          30.
      5,           0.,           5.,          30.
      6,           5.,           0.,          28.
      7,         3.75,         1.25,          28.
      8,          2.5,          2.5,          28.
      9,         1.25,         3.75,          28.
     10,           0.,           5.,          28.
     11,           5.,           0.,          26.
     12,         3.75,         1.25,          26.
     13,          2.5,          2.5,          26.
     14,         1.25,         3.75,          26.
     15,           0.,           5.,          26.
     16,           5.,           0.,          24.
     17,         3.75,         1.25,          24.
     18,          2.5,          2.5,          24.
     19,         1.25,         3.75,          24.
     20,           0.,           5.,          24.
** ... 1420 like lines cut
*Element, type=C3D8R
   1,   81,   82,   87,   86,    1,    2,    7,    6
   2,   82,   83,   88,   87,    2,    3,    8,    7
   3,   83,   84,   89,   88,    3,    4,    9,    8
   4,   84,   85,   90,   89,    4,    5,   10,    9
   5,   86,   87,   92,   91,    6,    7,   12,   11
   6,   87,   88,   93,   92,    7,    8,   13,   12
   7,   88,   89,   94,   93,    8,    9,   14,   13
   8,   89,   90,   95,   94,    9,   10,   15,   14
   9,   91,   92,   97,   96,   11,   12,   17,   16
  10,   92,   93,   98,   97,   12,   13,   18,   17
  11,   93,   94,   99,   98,   13,   14,   19,   18
  12,   94,   95,  100,   99,   14,   15,   20,   19
  13,   96,   97,  102,  101,   16,   17,   22,   21
  14,   97,   98,  103,  102,   17,   18,   23,   22
  15,   98,   99,  104,  103,   18,   19,   24,   23
  16,   99,  100,  105,  104,   19,   20,   25,   24
  17,  101,  102,  107,  106,   21,   22,   27,   26
  18,  102,  103,  108,  107,   22,   23,   28,   27
  19,  103,  104,  109,  108,   23,   24,   29,   28
  20,  104,  105,  110,  109,   24,   25,   30,   29
** ... 1000 like lines cut
*Node
   1441,          40.,           5.,          15.
*Nset, nset=Niederhalterplatte-RefPt_, internal
1441, 
*Nset, nset=_PickedSet3, internal, generate
    1,  1440,     1
*Elset, elset=_PickedSet3, internal, generate
    1,  1020,     1
** Section: Section-NH
*Solid Section, elset=_PickedSet3, material=Stahl
,
*End Part
**  
**
** ASSEMBLY
**
*Assembly, name=Assembly
**  
*Instance, name=Niederhalterplatte-1, part=Niederhalterplatte
        165.,           0.,          25.
        165.,           0.,          25.,         166.,           0.,          25.,         180.
*End Instance
**  
*Instance, name=Niederhalterplatte-2, part=Niederhalterplatte
        165.,          0.6,          -5.
*End Instance
**  
*Instance, name=Blech_Shell-1, part=Blech_Shell
          0.,           0.,          20.
          0.,           0.,          20.,          -1.,           0.,          20.,          90.
*End Instance
**  
*Nset, nset=Blech-Set, instance=Blech_Shell-1, generate
    1,  1111,     1
*Nset, nset=Set-3, instance=Blech_Shell-1, generate
  202,  1010,   101
*Nset, nset=_PickedSet10, internal, instance=Niederhalterplatte-2
 1441,
*Nset, nset=_PickedSet11, internal, instance=Niederhalterplatte-2, generate
    1,  1440,     1
*Elset, elset=_PickedSet11, internal, instance=Niederhalterplatte-2, generate
    1,  1020,     1
*Nset, nset=_PickedSet12, internal, instance=Niederhalterplatte-1
 1441,
*Nset, nset=_PickedSet13, internal, instance=Niederhalterplatte-1, generate
    1,  1440,     1
*Elset, elset=_PickedSet13, internal, instance=Niederhalterplatte-1, generate
    1,  1020,     1
*Nset, nset=_PickedSet15, internal, instance=Niederhalterplatte-1
 1441,
*Nset, nset=_PickedSet16, internal, instance=Niederhalterplatte-2
 1441,
*Nset, nset=_PickedSet28, internal, instance=Blech_Shell-1
    1,    2,    3,    4,    5,    6,    7,    8,    9,   10,   11,   12,   13,   14,   15,   16
   17,   18,   19,   20,   21,   22,   23,   24,   25,   26,   27,   28,   29,   30,   31,   32
   33,   34,   35,   36,   37,   38,   39,   40,   41,   42,   43,   44,   45,   46,   47,   48
   49,   50,   51,   52,   53,   54,   55,   56,   57,   58,   59,   60,   61,   62,   63,   64
   65,   66,   67,   68,   69,   70,   71,   72,   73,   74,   75,   76,   77,   78,   79,   80
   81,   82,   83,   84,   85,   86,   87,   88,   89,   90,   91,   92,   93,   94,   95,   96
   97,   98,   99,  100,  101, 1011, 1012, 1013, 1014, 1015, 1016, 1017, 1018, 1019, 1020, 1021
 1022, 1023, 1024, 1025, 1026, 1027, 1028, 1029, 1030, 1031, 1032, 1033, 1034, 1035, 1036, 1037
 1038, 1039, 1040, 1041, 1042, 1043, 1044, 1045, 1046, 1047, 1048, 1049, 1050, 1051, 1052, 1053
 1054, 1055, 1056, 1057, 1058, 1059, 1060, 1061, 1062, 1063, 1064, 1065, 1066, 1067, 1068, 1069
 1070, 1071, 1072, 1073, 1074, 1075, 1076, 1077, 1078, 1079, 1080, 1081, 1082, 1083, 1084, 1085
 1086, 1087, 1088, 1089, 1090, 1091, 1092, 1093, 1094, 1095, 1096, 1097, 1098, 1099, 1100, 1101
 1102, 1103, 1104, 1105, 1106, 1107, 1108, 1109, 1110, 1111
*Elset, elset=_PickedSet28, internal, instance=Blech_Shell-1
    1,    2,    3,    4,    5,    6,    7,    8,    9,   10,   11,   12,   13,   14,   15,   16
   17,   18,   19,   20,   21,   22,   23,   24,   25,   26,   27,   28,   29,   30,   31,   32
   33,   34,   35,   36,   37,   38,   39,   40,   41,   42,   43,   44,   45,   46,   47,   48
   49,   50,   51,   52,   53,   54,   55,   56,   57,   58,   59,   60,   61,   62,   63,   64
   65,   66,   67,   68,   69,   70,   71,   72,   73,   74,   75,   76,   77,   78,   79,   80
   81,   82,   83,   84,   85,   86,   87,   88,   89,   90,   91,   92,   93,   94,   95,   96
   97,   98,   99,  100,  901,  902,  903,  904,  905,  906,  907,  908,  909,  910,  911,  912
  913,  914,  915,  916,  917,  918,  919,  920,  921,  922,  923,  924,  925,  926,  927,  928
  929,  930,  931,  932,  933,  934,  935,  936,  937,  938,  939,  940,  941,  942,  943,  944
  945,  946,  947,  948,  949,  950,  951,  952,  953,  954,  955,  956,  957,  958,  959,  960
  961,  962,  963,  964,  965,  966,  967,  968,  969,  970,  971,  972,  973,  974,  975,  976
  977,  978,  979,  980,  981,  982,  983,  984,  985,  986,  987,  988,  989,  990,  991,  992
  993,  994,  995,  996,  997,  998,  999, 1000
*Elset, elset=_NH-oben_S6, internal, instance=Niederhalterplatte-2, generate
    1,  1017,     4
*Surface, type=ELEMENT, name=NH-oben
_NH-oben_S6, S6
*Elset, elset=_NH-unten_S6, internal, instance=Niederhalterplatte-1, generate
    1,  1017,     4
*Surface, type=ELEMENT, name=NH-unten
_NH-unten_S6, S6
*Elset, elset=__PickedSurf14_S4, internal, instance=Niederhalterplatte-2, generate
    4,  1020,     4
*Surface, type=ELEMENT, name=_PickedSurf14, internal
__PickedSurf14_S4, S4
** Constraint: RigidBody-1
*Rigid Body, ref node=_PickedSet10, elset=_PickedSet11
** Constraint: RigidBody-2
*Rigid Body, ref node=_PickedSet12, elset=_PickedSet13
*End Assembly
*Amplitude, name=SmoothStep, definition=SMOOTH STEP
             0.,              0.,              1.,              1.
** 
** MATERIALS
** 
*Material, name=Stahl
*Density
 7.9e-09,
*Elastic
210000., 0.3
*Material, name=X5CRNI18-1_4301
*Conductivity
 13.79,
*Density
 7.9e-09,
*Elastic
200000., 0.3
*Expansion
 1.65e-05,
*Inelastic Heat Fraction
         0.9,
*Plastic
 311.,   0.
 362., 0.02
 408., 0.04
 451., 0.06
 491., 0.08
 528.,  0.1
 564., 0.12
 598., 0.14
 631., 0.16
 662., 0.18
 693.,  0.2
 832.,  0.3
 956.,  0.4
1070.,  0.5
1320., 0.75
1540.,   1.
*Specific Heat
 4.9331e+08,
** 
** INTERACTION PROPERTIES
** 
*Surface Interaction, name=IntProp
*Friction, user=friction, depvar=0, properties=6
8,0.0623,-0.1542,-0.1192,0.1017,-0.0844
*Surface Behavior, pressure-overclosure=HARD
*Surface Interaction, name=IntProp-2
*Friction, user=friction, depvar=0, properties=6
8,0.0623,-0.1542,-0.1192,0.1017,-0.0844
*Surface Behavior, pressure-overclosure=HARD
** 
** INTERACTIONS
** 
** Interaction: general_contact
*Contact, op=NEW
*Contact Inclusions
Blech_Shell-1.Blech_oben , NH-oben
Blech_Shell-1.Blech_unten , NH-unten
*Contact Property Assignment
 ,  , IntProp
*Contact Formulation, type=PURE MASTER-SLAVE
NH-oben , Blech_Shell-1.Blech_unten , MASTER
NH-unten , Blech_Shell-1.Blech_oben , MASTER
** ----------------------------------------------------------------
** 
** STEP: Step-1
** 
*Step, name=Step-1, nlgeom=YES
*Dynamic, Explicit
, 0.4471
*Bulk Viscosity
0.06, 1.2
*FIELD, USER, NUMBER=8
Blech-Set
** Mass Scaling: Semi-Automatic
**               Whole Model
*Fixed Mass Scaling, factor=4.
** 
** BOUNDARY CONDITIONS
** 
** Name: BC-1 Type: Symmetry/Antisymmetry/Encastre
*Boundary
_PickedSet15, ENCASTRE
** Name: BC-2 Type: Displacement/Rotation
*Boundary
_PickedSet16, 1, 1
_PickedSet16, 3, 3
_PickedSet16, 4, 4
_PickedSet16, 5, 5
_PickedSet16, 6, 6
** Name: BC-3 Type: Displacement/Rotation
*Boundary, amplitude=SmoothStep
Set-3, 1, 1, 500.
Set-3, 2, 2
Set-3, 3, 3
Set-3, 4, 4
Set-3, 5, 5
Set-3, 6, 6
** Name: BC-4 Type: Displacement/Rotation
*Boundary
_PickedSet28, 6, 6
** 
** LOADS
** 
** Name: Surfforce   Type: Pressure
*Dsload
_PickedSurf14, P, 3.
** 
** INTERACTIONS
** 
** Interaction: general_contact
*Contact, op=NEW
** Interaction: general_contact_Zug
*Contact, op=NEW
*Contact Inclusions, ALL EXTERIOR
*Contact Property Assignment
 ,  , IntProp
Blech_Shell-1.Blech_oben , NH-oben , IntProp
Blech_Shell-1.Blech_unten , NH-unten , IntProp-2
*Contact Formulation, type=PURE MASTER-SLAVE
NH-oben , Blech_Shell-1.Blech_oben , MASTER
NH-unten , Blech_Shell-1.Blech_unten , MASTER
Blech_Shell-1.Blech_oben , NH-oben , SLAVE
Blech_Shell-1.Blech_unten , NH-unten , SLAVE
** 
** OUTPUT REQUESTS
** 
*Restart, write, number interval=1, time marks=NO
** 
** FIELD OUTPUT: F-Output-1
** 
*Output, field, number interval=100
*Node Output
A, RF, U, V
** 
** FIELD OUTPUT: F-Output-2
** 
*Contact Output
CFORCE, CSTRESS, FSLIP, FSLIPR
** 
** FIELD OUTPUT: F-Output-3
** 
*Element Output, directions=YES
FV, LE, P, PE, PEEQ, PEEQVAVG, PEVAVG, S, SDV, STH, SVAVG
** 
** HISTORY OUTPUT: H-Output-1
** 
*Output, history, variable=PRESELECT
*End Step
