** Job name: Job-Kontinuum Model name: Streifenziehversuch
** Generated by: Abaqus/CAE 6.14-6
**
** PARTS
**
*Part, name=Blech
*Node
      1,         200.,          20.,  0.400000006
      2,         200.,          18.,  0.400000006
      3,         200.,          16.,  0.400000006
      4,         200.,          14.,  0.400000006
      5,         200.,          12.,  0.400000006
      6,         200.,          10.,  0.400000006
      7,         200.,           8.,  0.400000006
      8,         200.,           6.,  0.400000006
      9,         200.,           4.,  0.400000006
     10,         200.,           2.,  0.400000006
     11,         200.,           0.,  0.400000006
     12,         200.,          20.,           0.
     13,         200.,          18.,           0.
     14,         200.,          16.,           0.
     15,         200.,          14.,           0.
     16,         200.,          12.,           0.
     17,         200.,          10.,           0.
     18,         200.,           8.,           0.
     19,         200.,           6.,           0.
     20,         200.,           4.,           0.
** ... 2202 like lines cut
*Element, type=C3D8R
   1,   23,   24,   35,   34,    1,    2,   13,   12
   2,   24,   25,   36,   35,    2,    3,   14,   13
   3,   25,   26,   37,   36,    3,    4,   15,   14
   4,   26,   27,   38,   37,    4,    5,   16,   15
   5,   27,   28,   39,   38,    5,    6,   17,   16
   6,   28,   29,   40,   39,    6,    7,   18,   17
   7,   29,   30,   41,   40,    7,    8,   19,   18
   8,   30,   31,   42,   41,    8,    9,   20,   19
   9,   31,   32,   43,   42,    9,   10,   21,   20
  10,   32,   33,   44,   43,   10,   11,   22,   21
  11,   45,   46,   57,   56,   23,   24,   35,   34
  12,   46,   47,   58,   57,   24,   25,   36,   35
  13,   47,   48,   59,   58,   25,   26,   37,   36
  14,   48,   49,   60,   59,   26,   27,   38,   37
  15,   49,   50,   61,   60,   27,   28,   39,   38
  16,   50,   51,   62,   61,   28,   29,   40,   39
  17,   51,   52,   63,   62,   29,   30,   41,   40
  18,   52,   53,   64,   63,   30,   31,   42,   41
  19,   53,   54,   65,   64,   31,   32,   43,   42
  20,   54,   55,   66,   65,   32,   33,   44,   43
** ... 980 like lines cut
*Nset, nset=_PickedSet5, internal, generate
    1,  2222,     1
*Elset, elset=_PickedSet5, internal, generate
    1,  1000,     1
*Elset, elset=_Blech_oben_S5, internal, generate
    1,  1000,     1
*Surface, type=ELEMENT, name=Blech_oben
_Blech_oben_S5, S5
*Elset, elset=_Blech_unten_S3, internal, generate
    1,  1000,     1
*Surface, type=ELEMENT, name=Blech_unten
_Blech_unten_S3, S3
** Section: Section-1_Blech
*Solid Section, elset=_PickedSet5, material=X5CRNI18-1_4301
,
*End Part
**  
*Part, name=Niederhalterplatte
*Node
      1,           5.,           0.,          30.
      2,         3.75,         1.25,          30.
      3,          2.5,          2.5,          30.
      4,         1.25,         3.75,          30.
      5,           0.,           5.,          30.
      6,           5.,           0.,          28.
      7,         3.75,         1.25,          28.
      8,          2.5,          2.5,          28.
      9,         1.25,         3.75,          28.
     10,           0.,           5.,          28.
     11,           5.,           0.,          26.
     12,         3.75,         1.25,          26.
     13,          2.5,          2.5,          26.
     14,         1.25,         3.75,          26.
     15,           0.,           5.,          26.
     16,           5.,           0.,          24.
     17,         3.75,         1.25,          24.
     18,          2.5,          2.5,          24.
     19,         1.25,         3.75,          24.
     20,           0.,           5.,          24.
** ... 1420 like lines cut
*Element, type=C3D8R
   1,   81,   82,   87,   86,    1,    2,    7,    6
   2,   82,   83,   88,   87,    2,    3,    8,    7
   3,   83,   84,   89,   88,    3,    4,    9,    8
   4,   84,   85,   90,   89,    4,    5,   10,    9
   5,   86,   87,   92,   91,    6,    7,   12,   11
   6,   87,   88,   93,   92,    7,    8,   13,   12
   7,   88,   89,   94,   93,    8,    9,   14,   13
   8,   89,   90,   95,   94,    9,   10,   15,   14
   9,   91,   92,   97,   96,   11,   12,   17,   16
  10,   92,   93,   98,   97,   12,   13,   18,   17
  11,   93,   94,   99,   98,   13,   14,   19,   18
  12,   94,   95,  100,   99,   14,   15,   20,   19
  13,   96,   97,  102,  101,   16,   17,   22,   21
  14,   97,   98,  103,  102,   17,   18,   23,   22
  15,   98,   99,  104,  103,   18,   19,   24,   23
  16,   99,  100,  105,  104,   19,   20,   25,   24
  17,  101,  102,  107,  106,   21,   22,   27,   26
  18,  102,  103,  108,  107,   22,   23,   28,   27
  19,  103,  104,  109,  108,   23,   24,   29,   28
  20,  104,  105,  110,  109,   24,   25,   30,   29
** ... 1000 like lines cut
*Node
   1441,          40.,           5.,          15.
*Nset, nset=Niederhalterplatte-RefPt_, internal
1441, 
*Nset, nset=_PickedSet3, internal, generate
    1,  1440,     1
*Elset, elset=_PickedSet3, internal, generate
    1,  1020,     1
** Section: Section-NH
*Solid Section, elset=_PickedSet3, material=Stahl
,
*End Part
**  
**
** ASSEMBLY
**
*Assembly, name=Assembly
**  
*Instance, name=Blech-1, part=Blech
          0.,           0.,           0.
          0.,           0.,           0.,           1.,           0.,           0.,          90.
*End Instance
**  
*Instance, name=Niederhalterplatte-1, part=Niederhalterplatte
        165.,         -0.4,          25.
        165.,         -0.4,          25.,         166.,         -0.4,          25.,         180.
*End Instance
**  
*Instance, name=Niederhalterplatte-2, part=Niederhalterplatte
        165.,           0.,          -5.
*End Instance
**  
*Nset, nset=Set-Blech, instance=Blech-1, generate
    1,  2222,     1
*Nset, nset=Set-Blech-1, instance=Blech-1, generate
  1,  22,   1
*Nset, nset=_PickedSet10, internal, instance=Niederhalterplatte-2
 1441,
*Nset, nset=_PickedSet11, internal, instance=Niederhalterplatte-2, generate
    1,  1440,     1
*Elset, elset=_PickedSet11, internal, instance=Niederhalterplatte-2, generate
    1,  1020,     1
*Nset, nset=_PickedSet12, internal, instance=Niederhalterplatte-1
 1441,
*Nset, nset=_PickedSet13, internal, instance=Niederhalterplatte-1, generate
    1,  1440,     1
*Elset, elset=_PickedSet13, internal, instance=Niederhalterplatte-1, generate
    1,  1020,     1
*Nset, nset=_PickedSet15, internal, instance=Niederhalterplatte-1
 1441,
*Nset, nset=_PickedSet16, internal, instance=Niederhalterplatte-2
 1441,
*Nset, nset=_PickedSet18, internal, instance=Blech-1, generate
  1,  22,   1
*Elset, elset=_PickedSet18, internal, instance=Blech-1, generate
  1,  10,   1
*Elset, elset=_NH-oben_S6, internal, instance=Niederhalterplatte-2, generate
    1,  1017,     4
*Surface, type=ELEMENT, name=NH-oben
_NH-oben_S6, S6
*Elset, elset=_NH-unten_S6, internal, instance=Niederhalterplatte-1, generate
    1,  1017,     4
*Surface, type=ELEMENT, name=NH-unten
_NH-unten_S6, S6
*Elset, elset=__PickedSurf14_S4, internal, instance=Niederhalterplatte-2, generate
    4,  1020,     4
*Surface, type=ELEMENT, name=_PickedSurf14, internal
__PickedSurf14_S4, S4
** Constraint: RigidBody-1
*Rigid Body, ref node=_PickedSet10, elset=_PickedSet11
** Constraint: RigidBody-2
*Rigid Body, ref node=_PickedSet12, elset=_PickedSet13
*End Assembly
*Amplitude, name=SmoothStep, definition=SMOOTH STEP
             0.,              0.,              1.,              1.
** 
** MATERIALS
** 
*Material, name=Stahl
*Density
 7.9e-09,
*Elastic
210000., 0.3
*Material, name=X5CRNI18-1_4301
*Conductivity
 13.79,
*Density
 7.9e-09,
*Elastic
200000., 0.3
*Expansion
 1.65e-05,
*Inelastic Heat Fraction
         0.9,
*Plastic
 311.,   0.
 362., 0.02
 408., 0.04
 451., 0.06
 491., 0.08
 528.,  0.1
 564., 0.12
 598., 0.14
 631., 0.16
 662., 0.18
 693.,  0.2
 832.,  0.3
 956.,  0.4
1070.,  0.5
1320., 0.75
1540.,   1.
*Specific Heat
 4.9331e+08,
** 
** INTERACTION PROPERTIES
** 
*Surface Interaction, name=COULOMB_0-137
*Friction, user=friction, depvar=0, properties=6
8,0.0623,-0.1542,-0.1192,0.1017,-0.0844
*Surface Behavior, pressure-overclosure=HARD
** 
** INTERACTIONS
** 
** Interaction: general_contact
*Contact, op=NEW
*Contact Inclusions, ALL EXTERIOR
*Contact Property Assignment
 ,  , COULOMB_0-137
*Contact Formulation, type=PURE MASTER-SLAVE
NH-unten , Blech-1.Blech_unten , MASTER
NH-oben , Blech-1.Blech_oben , MASTER
** ----------------------------------------------------------------
** 
** STEP: Step-1
** 
*Step, name=Step-1, nlgeom=YES
*Dynamic, Explicit
, 0.4092
*Bulk Viscosity
0.06, 1.2
*FIELD, USER, NUMBER=4
Set-Blech
** Mass Scaling: Semi-Automatic
**               Whole Model
*Fixed Mass Scaling, factor=4.
** 
** BOUNDARY CONDITIONS
** 
** Name: BC-1 Type: Symmetry/Antisymmetry/Encastre
*Boundary
_PickedSet15, ENCASTRE
** Name: BC-2 Type: Displacement/Rotation
*Boundary
_PickedSet16, 1, 1
_PickedSet16, 3, 3
_PickedSet16, 4, 4
_PickedSet16, 5, 5
_PickedSet16, 6, 6
** Name: BC-3 Type: Displacement/Rotation
*Boundary, amplitude=SmoothStep
_PickedSet18, 1, 1, 500.
_PickedSet18, 2, 2
_PickedSet18, 3, 3
_PickedSet18, 4, 4
_PickedSet18, 5, 5
_PickedSet18, 6, 6
** 
** LOADS
** 
** Name: Surfforce   Type: Pressure
*Dsload
_PickedSurf14, P, 3.
** 
** INTERACTIONS
** 
** Interaction: general_contact
*Contact, op=NEW
** Interaction: general_contact_Zug
*Contact, op=NEW
*Contact Inclusions, ALL EXTERIOR
*Contact Property Assignment
 ,  , COULOMB_0-137
*Contact Formulation, type=PURE MASTER-SLAVE
NH-oben , Blech-1.Blech_oben , MASTER
NH-unten , Blech-1.Blech_unten , MASTER
Blech-1.Blech_oben , NH-oben , SLAVE
Blech-1.Blech_unten , NH-unten , SLAVE
** 
** OUTPUT REQUESTS
** 
*Restart, write, number interval=1, time marks=NO
** 
** FIELD OUTPUT: F-Output-3
** 
*Output, field, number interval=100
*Contact Output
CSTRESS, FSLIP, FSLIPR
** 
** FIELD OUTPUT: F-Output-2
** 
*Element Output, directions=YES
FV, LE, P, PE, PEEQ, PEEQVAVG, PEVAVG, S, SDV, STH, SVAVG
** 
** FIELD OUTPUT: F-Output-1
** 
*Output, field, variable=PRESELECT, number interval=100
** 
** HISTORY OUTPUT: H-Output-1
** 
*Output, history, variable=PRESELECT
*End Step
